<?xml version='1.0' encoding='UTF-8'?>
<routes>
  <route id="0" town="Town10HD_Opt">
    <weathers>
      <weather route_percentage = "0.0" cloudiness="15.0" precipitation="0.0" precipitation_deposits="0.0" wind_intensity="8.0" sun_azimuth_angle="45.0" sun_altitude_angle="65.0" fog_density="0.0" fog_distance="150.0" wetness="0.0"/>
      <weather route_percentage = "100.0" cloudiness="15.0" precipitation="0.0" precipitation_deposits="0.0" wind_intensity="8.0" sun_azimuth_angle="45.0" sun_altitude_angle="65.0" fog_density="0.0" fog_distance="150.0" wetness="0.0"/>
    </weathers>
    <waypoints>
      <position x="-71.803909" y="16.484484" z="0.000000" pitch="0.0" roll="0.0" yaw="180.159195"/>
      <position x="-114.300026" y="49.820641" z="0.000000" pitch="0.0" roll="0.0" yaw="90.642235"/>
    </waypoints>
    <scenarios>
    </scenarios>
  </route>
  
  <route id="1" town="Town10HD_Opt">
    <weathers>
      <weather route_percentage = "0.0" cloudiness="85.0" precipitation="45.0" precipitation_deposits="60.0" wind_intensity="18.0" sun_azimuth_angle="180.0" sun_altitude_angle="25.0" fog_density="15.0" fog_distance="40.0" wetness="75.0"/>
      <weather route_percentage = "100.0" cloudiness="85.0" precipitation="45.0" precipitation_deposits="60.0" wind_intensity="18.0" sun_azimuth_angle="180.0" sun_altitude_angle="25.0" fog_density="15.0" fog_distance="40.0" wetness="75.0"/>
    </weathers>
    <waypoints>
      <position x="-45.272141" y="-26.186539" z="0.000000" pitch="0.0" roll="0.0" yaw="270.432312"/>
      <position x="-73.436516" y="-68.647530" z="0.000000" pitch="0.0" roll="0.0" yaw="176.305466"/>
    </waypoints>
    <scenarios>
    </scenarios>
  </route>
  
  <route id="2" town="Town10HD_Opt">
    <weathers>
      <weather route_percentage = "0.0" cloudiness="30.0" precipitation="0.0" precipitation_deposits="0.0" wind_intensity="35.0" sun_azimuth_angle="270.0" sun_altitude_angle="50.0" fog_density="2.0" fog_distance="120.0" wetness="0.0"/>
      <weather route_percentage = "100.0" cloudiness="30.0" precipitation="0.0" precipitation_deposits="0.0" wind_intensity="35.0" sun_azimuth_angle="270.0" sun_altitude_angle="50.0" fog_density="2.0" fog_distance="120.0" wetness="0.0"/>
    </weathers>
    <waypoints>
      <position x="-45.272141" y="-26.186539" z="0.000000" pitch="0.0" roll="0.0" yaw="270.432312"/>
      <position x="-73.436516" y="-68.647530" z="0.000000" pitch="0.0" roll="0.0" yaw="176.305466"/>
    </waypoints>
    <scenarios>
    </scenarios>
  </route>
  
  <route id="3" town="Town10HD_Opt">
    <weathers>
      <weather route_percentage = "0.0" cloudiness="95.0" precipitation="80.0" precipitation_deposits="90.0" wind_intensity="25.0" sun_azimuth_angle="90.0" sun_altitude_angle="15.0" fog_density="40.0" fog_distance="25.0" wetness="95.0"/>
      <weather route_percentage = "100.0" cloudiness="95.0" precipitation="80.0" precipitation_deposits="90.0" wind_intensity="25.0" sun_azimuth_angle="90.0" sun_altitude_angle="15.0" fog_density="40.0" fog_distance="25.0" wetness="95.0"/>
    </weathers>
    <waypoints>
      <position x="-45.272141" y="-26.186539" z="0.000000" pitch="0.0" roll="0.0" yaw="270.432312"/>
      <position x="-73.436516" y="-68.647530" z="0.000000" pitch="0.0" roll="0.0" yaw="176.305466"/>
    </waypoints>
    <scenarios>
    </scenarios>
  </route>
  
  <route id="4" town="Town10HD_Opt">
    <weathers>
      <weather route_percentage = "0.0" cloudiness="50.0" precipitation="20.0" precipitation_deposits="25.0" wind_intensity="12.0" sun_azimuth_angle="135.0" sun_altitude_angle="40.0" fog_density="8.0" fog_distance="70.0" wetness="30.0"/>
      <weather route_percentage = "100.0" cloudiness="50.0" precipitation="20.0" precipitation_deposits="25.0" wind_intensity="12.0" sun_azimuth_angle="135.0" sun_altitude_angle="40.0" fog_density="8.0" fog_distance="70.0" wetness="30.0"/>
    </weathers>
    <waypoints>
      <position x="65.413338" y="24.865774" z="0.000000" pitch="0.0" roll="0.0" yaw="0.159198"/>
      <position x="106.396484" y="-4.449376" z="0.000000" pitch="0.0" roll="0.0" yaw="-89.609253"/>
    </waypoints>
    <scenarios>
    </scenarios>
  </route>
  <route id="5" town="Town10HD_Opt">
    <weathers>
      <weather route_percentage = "0.0" cloudiness="5.0" precipitation="0.0" precipitation_deposits="0.0" wind_intensity="3.0" sun_azimuth_angle="225.0" sun_altitude_angle="75.0" fog_density="0.0" fog_distance="200.0" wetness="0.0"/>
      <weather route_percentage = "100.0" cloudiness="5.0" precipitation="0.0" precipitation_deposits="0.0" wind_intensity="3.0" sun_azimuth_angle="225.0" sun_altitude_angle="75.0" fog_density="0.0" fog_distance="200.0" wetness="0.0"/>
    </weathers>
    <waypoints>
      <position x="-10.302157" y="-64.601990" z="0.000000" pitch="0.0" roll="0.0" yaw="180.596741"/>
      <position x="-48.642700" y="-43.353889" z="0.000000" pitch="0.0" roll="0.0" yaw="90.432320"/>
    </waypoints>
    <scenarios>
    </scenarios>
  </route>
  <route id="6" town="Town10HD_Opt">
    <weathers>
      <weather route_percentage = "0.0" cloudiness="70.0" precipitation="0.0" precipitation_deposits="0.0" wind_intensity="45.0" sun_azimuth_angle="315.0" sun_altitude_angle="35.0" fog_density="20.0" fog_distance="60.0" wetness="5.0"/>
      <weather route_percentage = "100.0" cloudiness="70.0" precipitation="0.0" precipitation_deposits="0.0" wind_intensity="45.0" sun_azimuth_angle="315.0" sun_altitude_angle="35.0" fog_density="20.0" fog_distance="60.0" wetness="5.0"/>
    </weathers>
    <waypoints>
      <position x="-48.839951" y="-17.213200" z="0.000000" pitch="0.0" roll="0.0" yaw="90.432335"/>
      <position x="-72.803902" y="16.481705" z="0.000000" pitch="0.0" roll="0.0" yaw="180.159195"/>
    </waypoints>
    <scenarios>
    </scenarios>
  </route>
  <route id="7" town="Town10HD_Opt">
    <weathers>
      <weather route_percentage = "0.0" cloudiness="40.0" precipitation="65.0" precipitation_deposits="70.0" wind_intensity="22.0" sun_azimuth_angle="0.0" sun_altitude_angle="30.0" fog_density="25.0" fog_distance="45.0" wetness="80.0"/>
      <weather route_percentage = "100.0" cloudiness="40.0" precipitation="65.0" precipitation_deposits="70.0" wind_intensity="22.0" sun_azimuth_angle="0.0" sun_altitude_angle="30.0" fog_density="25.0" fog_distance="45.0" wetness="80.0"/>
    </weathers>
    <waypoints>
      <position x="-72.803902" y="16.481705" z="0.000000" pitch="0.0" roll="0.0" yaw="180.159195"/>
      <position x="-110.732994" y="43.860245" z="0.000000" pitch="0.0" roll="0.0" yaw="90.642235"/>
    </waypoints>
    <scenarios>
    </scenarios>
  </route>
  <route id="8" town="Town10HD_Opt">
    <weathers>
      <weather route_percentage = "0.0" cloudiness="15.0" precipitation="0.0" precipitation_deposits="0.0" wind_intensity="8.0" sun_azimuth_angle="45.0" sun_altitude_angle="65.0" fog_density="0.0" fog_distance="150.0" wetness="0.0"/>
      <weather route_percentage = "100.0" cloudiness="15.0" precipitation="0.0" precipitation_deposits="0.0" wind_intensity="8.0" sun_azimuth_angle="45.0" sun_altitude_angle="65.0" fog_density="0.0" fog_distance="150.0" wetness="0.0"/>
    </weathers>
    <waypoints>
      <position x="-88.686073" y="127.980064" z="0.000000" pitch="0.0" roll="0.0" yaw="37.065353"/>
      <position x="-28.560221" y="137.035614" z="0.000000" pitch="0.0" roll="0.0" yaw="0.352127"/>
    </waypoints>
    <scenarios>
    </scenarios>
  </route>
  <route id="9" town="Town10HD_Opt">
    <weathers>
      <weather route_percentage = "0.0" cloudiness="85.0" precipitation="45.0" precipitation_deposits="60.0" wind_intensity="18.0" sun_azimuth_angle="180.0" sun_altitude_angle="25.0" fog_density="15.0" fog_distance="40.0" wetness="75.0"/>
      <weather route_percentage = "100.0" cloudiness="85.0" precipitation="45.0" precipitation_deposits="60.0" wind_intensity="18.0" sun_azimuth_angle="180.0" sun_altitude_angle="25.0" fog_density="15.0" fog_distance="40.0" wetness="75.0"/>
    </weathers>
    <waypoints>
      <position x="39.773056" y="36.280201" z="0.000000" pitch="0.0" roll="0.0" yaw="-288.580963"/>
      <position x="27.142294" y="66.283257" z="0.000000" pitch="0.0" roll="0.0" yaw="-179.926727"/>
    </waypoints>
    <scenarios>
    </scenarios>
  </route>
  <route id="10" town="Town10HD_Opt">
    <weathers>
      <weather route_percentage = "0.0" cloudiness="30.0" precipitation="0.0" precipitation_deposits="0.0" wind_intensity="35.0" sun_azimuth_angle="270.0" sun_altitude_angle="50.0" fog_density="2.0" fog_distance="120.0" wetness="0.0"/>
      <weather route_percentage = "100.0" cloudiness="30.0" precipitation="0.0" precipitation_deposits="0.0" wind_intensity="35.0" sun_azimuth_angle="270.0" sun_altitude_angle="50.0" fog_density="2.0" fog_distance="120.0" wetness="0.0"/>
    </weathers>
    <waypoints>
      <position x="-9.857676" y="66.235947" z="0.000000" pitch="0.0" roll="0.0" yaw="-179.926727"/>
      <position x="-45.177841" y="45.715416" z="0.000000" pitch="0.0" roll="0.0" yaw="-90.161232"/>
    </waypoints>
    <scenarios>
    </scenarios>
  </route>
  <route id="11" town="Town10HD_Opt">
    <weathers>
      <weather route_percentage = "0.0" cloudiness="95.0" precipitation="80.0" precipitation_deposits="90.0" wind_intensity="25.0" sun_azimuth_angle="90.0" sun_altitude_angle="15.0" fog_density="40.0" fog_distance="25.0" wetness="95.0"/>
      <weather route_percentage = "100.0" cloudiness="95.0" precipitation="80.0" precipitation_deposits="90.0" wind_intensity="25.0" sun_azimuth_angle="90.0" sun_altitude_angle="15.0" fog_density="40.0" fog_distance="25.0" wetness="95.0"/>
    </weathers>
    <waypoints>
      <position x="-39.216160" y="61.349251" z="0.000000" pitch="0.0" roll="0.0" yaw="228.863281"/>
      <position x="-66.803925" y="16.498377" z="0.000000" pitch="0.0" roll="0.0" yaw="180.159195"/>
    </waypoints>
    <scenarios>
    </scenarios>
  </route>
  <route id="12" town="Town10HD_Opt">
    <weathers>
      <weather route_percentage = "0.0" cloudiness="15.0" precipitation="0.0" precipitation_deposits="0.0" wind_intensity="8.0" sun_azimuth_angle="45.0" sun_altitude_angle="65.0" fog_density="0.0" fog_distance="150.0" wetness="0.0"/>
      <weather route_percentage = "100.0" cloudiness="15.0" precipitation="0.0" precipitation_deposits="0.0" wind_intensity="8.0" sun_azimuth_angle="45.0" sun_altitude_angle="65.0" fog_density="0.0" fog_distance="150.0" wetness="0.0"/>
    </weathers>
    <waypoints>
      <position x="-71.803909" y="16.484484" z="0.000000" pitch="0.0" roll="0.0" yaw="180.159195"/>
      <position x="-110.732994" y="43.860245" z="0.000000" pitch="0.0" roll="0.0" yaw="90.642235"/>
    </waypoints>
    <scenarios>
    </scenarios>
  </route>
  <route id="13" town="Town10HD_Opt">
    <weathers>
      <weather route_percentage = "0.0" cloudiness="85.0" precipitation="45.0" precipitation_deposits="60.0" wind_intensity="18.0" sun_azimuth_angle="180.0" sun_altitude_angle="25.0" fog_density="15.0" fog_distance="40.0" wetness="75.0"/>
      <weather route_percentage = "100.0" cloudiness="85.0" precipitation="45.0" precipitation_deposits="60.0" wind_intensity="18.0" sun_azimuth_angle="180.0" sun_altitude_angle="25.0" fog_density="15.0" fog_distance="40.0" wetness="75.0"/>
    </weathers>
    <waypoints>
      <position x="-88.686073" y="127.980064" z="0.000000" pitch="0.0" roll="0.0" yaw="37.065353"/>
      <position x="-28.560221" y="137.035614" z="0.000000" pitch="0.0" roll="0.0" yaw="0.352127"/>
    </waypoints>
    <scenarios>
    </scenarios>
  </route>
  <route id="14" town="Town10HD_Opt">
    <weathers>
      <weather route_percentage = "0.0" cloudiness="30.0" precipitation="0.0" precipitation_deposits="0.0" wind_intensity="35.0" sun_azimuth_angle="270.0" sun_altitude_angle="50.0" fog_density="2.0" fog_distance="120.0" wetness="0.0"/>
      <weather route_percentage = "100.0" cloudiness="30.0" precipitation="0.0" precipitation_deposits="0.0" wind_intensity="35.0" sun_azimuth_angle="270.0" sun_altitude_angle="50.0" fog_density="2.0" fog_distance="120.0" wetness="0.0"/>
    </weathers>
    <waypoints>
      <position x="-88.686073" y="127.980064" z="0.000000" pitch="0.0" roll="0.0" yaw="37.065353"/>
      <position x="-28.560221" y="137.035614" z="0.000000" pitch="0.0" roll="0.0" yaw="0.352127"/>
    </waypoints>
    <scenarios>
    </scenarios>
  </route>
  <route id="15" town="Town10HD_Opt">
    <weathers>
      <weather route_percentage = "0.0" cloudiness="50.0" precipitation="20.0" precipitation_deposits="25.0" wind_intensity="12.0" sun_azimuth_angle="135.0" sun_altitude_angle="40.0" fog_density="8.0" fog_distance="70.0" wetness="30.0"/>
      <weather route_percentage = "100.0" cloudiness="50.0" precipitation="20.0" precipitation_deposits="25.0" wind_intensity="12.0" sun_azimuth_angle="135.0" sun_altitude_angle="40.0" fog_density="8.0" fog_distance="70.0" wetness="30.0"/>
    </weathers>
    <waypoints>
      <position x="104.870102" y="101.127861" z="0.000000" pitch="0.0" roll="0.0" yaw="-79.349121"/>
      <position x="106.002846" y="53.269283" z="0.000000" pitch="0.0" roll="0.0" yaw="-89.609253"/>
    </waypoints>
    <scenarios>
    </scenarios>
  </route>
  <route id="16" town="Town10HD_Opt">
    <weathers>
      <weather route_percentage = "0.0" cloudiness="5.0" precipitation="0.0" precipitation_deposits="0.0" wind_intensity="3.0" sun_azimuth_angle="225.0" sun_altitude_angle="75.0" fog_density="0.0" fog_distance="200.0" wetness="0.0"/>
      <weather route_percentage = "100.0" cloudiness="5.0" precipitation="0.0" precipitation_deposits="0.0" wind_intensity="3.0" sun_azimuth_angle="225.0" sun_altitude_angle="75.0" fog_density="0.0" fog_distance="200.0" wetness="0.0"/>
    </weathers>
    <waypoints>
      <position x="105.964180" y="58.939152" z="0.000000" pitch="0.0" roll="0.0" yaw="-449.609222"/>
      <position x="77.075249" y="13.398134" z="0.000000" pitch="0.0" roll="0.0" yaw="180.159195"/>
    </waypoints>
    <scenarios>
    </scenarios>
  </route>
  <route id="17" town="Town10HD_Opt">
    <weathers>
      <weather route_percentage = "0.0" cloudiness="70.0" precipitation="0.0" precipitation_deposits="0.0" wind_intensity="45.0" sun_azimuth_angle="315.0" sun_altitude_angle="35.0" fog_density="20.0" fog_distance="60.0" wetness="5.0"/>
      <weather route_percentage = "100.0" cloudiness="70.0" precipitation="0.0" precipitation_deposits="0.0" wind_intensity="45.0" sun_azimuth_angle="315.0" sun_altitude_angle="35.0" fog_density="20.0" fog_distance="60.0" wetness="5.0"/>
    </weathers>
    <waypoints>
      <position x="75.075256" y="13.392576" z="0.000000" pitch="0.0" roll="0.0" yaw="180.159195"/>
      <position x="26.445444" y="13.257458" z="0.000000" pitch="0.0" roll="0.0" yaw="180.159195"/>
    </waypoints>
    <scenarios>
    </scenarios>
  </route>
  <route id="18" town="Town10HD_Opt">
    <weathers>
      <weather route_percentage = "0.0" cloudiness="95.0" precipitation="80.0" precipitation_deposits="90.0" wind_intensity="25.0" sun_azimuth_angle="90.0" sun_altitude_angle="15.0" fog_density="40.0" fog_distance="25.0" wetness="95.0"/>
      <weather route_percentage = "100.0" cloudiness="95.0" precipitation="80.0" precipitation_deposits="90.0" wind_intensity="25.0" sun_azimuth_angle="90.0" sun_altitude_angle="15.0" fog_density="40.0" fog_distance="25.0" wetness="95.0"/>
    </weathers>
    <waypoints>
      <position x="-11.554408" y="13.151875" z="0.000000" pitch="0.0" roll="0.0" yaw="180.159195"/>
      <position x="-45.316879" y="-3.694387" z="0.000000" pitch="0.0" roll="0.0" yaw="-90.161232"/>
    </waypoints>
    <scenarios>
    </scenarios>
  </route>
  <route id="19" town="Town10HD_Opt">
    <weathers>
      <weather route_percentage = "0.0" cloudiness="15.0" precipitation="0.0" precipitation_deposits="0.0" wind_intensity="8.0" sun_azimuth_angle="45.0" sun_altitude_angle="65.0" fog_density="0.0" fog_distance="150.0" wetness="0.0"/>
      <weather route_percentage = "100.0" cloudiness="15.0" precipitation="0.0" precipitation_deposits="0.0" wind_intensity="8.0" sun_azimuth_angle="45.0" sun_altitude_angle="65.0" fog_density="0.0" fog_distance="150.0" wetness="0.0"/>
    </weathers>
    <waypoints>
      <position x="-45.272141" y="-26.186539" z="0.000000" pitch="0.0" roll="0.0" yaw="270.432312"/>
      <position x="-73.436516" y="-68.647530" z="0.000000" pitch="0.0" roll="0.0" yaw="176.305466"/>
    </waypoints>
    <scenarios>
    </scenarios>
  </route>
  <route id="20" town="Town10HD_Opt">
    <weathers>
      <weather route_percentage = "0.0" cloudiness="85.0" precipitation="45.0" precipitation_deposits="60.0" wind_intensity="18.0" sun_azimuth_angle="180.0" sun_altitude_angle="25.0" fog_density="15.0" fog_distance="40.0" wetness="75.0"/>
      <weather route_percentage = "100.0" cloudiness="85.0" precipitation="45.0" precipitation_deposits="60.0" wind_intensity="18.0" sun_azimuth_angle="180.0" sun_altitude_angle="25.0" fog_density="15.0" fog_distance="40.0" wetness="75.0"/>
    </weathers>
    <waypoints>
      <position x="-110.020226" y="-19.725758" z="0.000000" pitch="0.0" roll="0.0" yaw="90.642235"/>
      <position x="-88.676064" y="24.437634" z="0.000000" pitch="0.0" roll="0.0" yaw="0.159198"/>
    </waypoints>
    <scenarios>
    </scenarios>
  </route>
  <route id="21" town="Town10HD_Opt">
    <weathers>
      <weather route_percentage = "0.0" cloudiness="30.0" precipitation="0.0" precipitation_deposits="0.0" wind_intensity="35.0" sun_azimuth_angle="270.0" sun_altitude_angle="50.0" fog_density="2.0" fog_distance="120.0" wetness="0.0"/>
      <weather route_percentage = "100.0" cloudiness="30.0" precipitation="0.0" precipitation_deposits="0.0" wind_intensity="35.0" sun_azimuth_angle="270.0" sun_altitude_angle="50.0" fog_density="2.0" fog_distance="120.0" wetness="0.0"/>
    </weathers>
    <waypoints>
      <position x="-83.676086" y="24.451527" z="0.000000" pitch="0.0" roll="0.0" yaw="0.159198"/>
      <position x="-28.716295" y="24.604233" z="0.000000" pitch="0.0" roll="0.0" yaw="0.159198"/>
    </waypoints>
    <scenarios>
    </scenarios>
  </route>
  <route id="22" town="Town10HD_Opt">
    <weathers>
      <weather route_percentage = "0.0" cloudiness="95.0" precipitation="80.0" precipitation_deposits="90.0" wind_intensity="25.0" sun_azimuth_angle="90.0" sun_altitude_angle="15.0" fog_density="40.0" fog_distance="25.0" wetness="95.0"/>
      <weather route_percentage = "100.0" cloudiness="95.0" precipitation="80.0" precipitation_deposits="90.0" wind_intensity="25.0" sun_azimuth_angle="90.0" sun_altitude_angle="15.0" fog_density="40.0" fog_distance="25.0" wetness="95.0"/>
    </weathers>
    <waypoints>
      <position x="9.283559" y="24.709816" z="0.000000" pitch="0.0" roll="0.0" yaw="0.159198"/>
      <position x="57.413372" y="24.843546" z="0.000000" pitch="0.0" roll="0.0" yaw="0.159198"/>
    </waypoints>
    <scenarios>
    </scenarios>
  </route>
  <route id="23" town="Town10HD_Opt">
    <weathers>
      <weather route_percentage = "0.0" cloudiness="15.0" precipitation="0.0" precipitation_deposits="0.0" wind_intensity="8.0" sun_azimuth_angle="45.0" sun_altitude_angle="65.0" fog_density="0.0" fog_distance="150.0" wetness="0.0"/>
      <weather route_percentage = "100.0" cloudiness="15.0" precipitation="0.0" precipitation_deposits="0.0" wind_intensity="8.0" sun_azimuth_angle="45.0" sun_altitude_angle="65.0" fog_density="0.0" fog_distance="150.0" wetness="0.0"/>
    </weathers>
    <waypoints>
      <position x="65.413338" y="24.865774" z="0.000000" pitch="0.0" roll="0.0" yaw="0.159198"/>
      <position x="106.396484" y="-4.449376" z="0.000000" pitch="0.0" roll="0.0" yaw="-89.609253"/>
    </waypoints>
    <scenarios>
    </scenarios>
  </route>
  <route id="24" town="Town10HD_Opt">
    <weathers>
      <weather route_percentage = "0.0" cloudiness="85.0" precipitation="45.0" precipitation_deposits="60.0" wind_intensity="18.0" sun_azimuth_angle="180.0" sun_altitude_angle="25.0" fog_density="15.0" fog_distance="40.0" wetness="75.0"/>
      <weather route_percentage = "100.0" cloudiness="85.0" precipitation="45.0" precipitation_deposits="60.0" wind_intensity="18.0" sun_azimuth_angle="180.0" sun_altitude_angle="25.0" fog_density="15.0" fog_distance="40.0" wetness="75.0"/>
    </weathers>
    <waypoints>
      <position x="39.773056" y="36.280201" z="0.000000" pitch="0.0" roll="0.0" yaw="-288.580963"/>
      <position x="27.142294" y="66.283257" z="0.000000" pitch="0.0" roll="0.0" yaw="-179.926727"/>
    </waypoints>
    <scenarios>
    </scenarios>
  </route>
  <route id="25" town="Town10HD_Opt">
    <weathers>
      <weather route_percentage = "0.0" cloudiness="30.0" precipitation="0.0" precipitation_deposits="0.0" wind_intensity="35.0" sun_azimuth_angle="270.0" sun_altitude_angle="50.0" fog_density="2.0" fog_distance="120.0" wetness="0.0"/>
      <weather route_percentage = "100.0" cloudiness="30.0" precipitation="0.0" precipitation_deposits="0.0" wind_intensity="35.0" sun_azimuth_angle="270.0" sun_altitude_angle="50.0" fog_density="2.0" fog_distance="120.0" wetness="0.0"/>
    </weathers>
    <waypoints>
      <position x="-9.857676" y="66.235947" z="0.000000" pitch="0.0" roll="0.0" yaw="-179.926727"/>
      <position x="-45.177841" y="45.715416" z="0.000000" pitch="0.0" roll="0.0" yaw="-90.161232"/>
    </waypoints>
    <scenarios>
    </scenarios>
  </route>
  <route id="26" town="Town10HD_Opt">
    <weathers>
      <weather route_percentage = "0.0" cloudiness="95.0" precipitation="80.0" precipitation_deposits="90.0" wind_intensity="25.0" sun_azimuth_angle="90.0" sun_altitude_angle="15.0" fog_density="40.0" fog_distance="25.0" wetness="95.0"/>
      <weather route_percentage = "100.0" cloudiness="95.0" precipitation="80.0" precipitation_deposits="90.0" wind_intensity="25.0" sun_azimuth_angle="90.0" sun_altitude_angle="15.0" fog_density="40.0" fog_distance="25.0" wetness="95.0"/>
    </weathers>
    <waypoints>
      <position x="-39.216160" y="61.349251" z="0.000000" pitch="0.0" roll="0.0" yaw="228.863281"/>
      <position x="-66.803925" y="16.498377" z="0.000000" pitch="0.0" roll="0.0" yaw="180.159195"/>
    </waypoints>
    <scenarios>
    </scenarios>
  </route>
  <route id="27" town="Town10HD_Opt">
    <weathers>
      <weather route_percentage = "0.0" cloudiness="15.0" precipitation="0.0" precipitation_deposits="0.0" wind_intensity="8.0" sun_azimuth_angle="45.0" sun_altitude_angle="65.0" fog_density="0.0" fog_distance="150.0" wetness="0.0"/>
      <weather route_percentage = "100.0" cloudiness="15.0" precipitation="0.0" precipitation_deposits="0.0" wind_intensity="8.0" sun_azimuth_angle="45.0" sun_altitude_angle="65.0" fog_density="0.0" fog_distance="150.0" wetness="0.0"/>
    </weathers>
    <waypoints>
      <position x="-71.803909" y="16.484484" z="0.000000" pitch="0.0" roll="0.0" yaw="180.159195"/>
      <position x="-110.732994" y="43.860245" z="0.000000" pitch="0.0" roll="0.0" yaw="90.642235"/>
    </waypoints>
    <scenarios>
    </scenarios>
  </route>
  <route id="28" town="Town10HD_Opt">
    <weathers>
      <weather route_percentage = "0.0" cloudiness="85.0" precipitation="45.0" precipitation_deposits="60.0" wind_intensity="18.0" sun_azimuth_angle="180.0" sun_altitude_angle="25.0" fog_density="15.0" fog_distance="40.0" wetness="75.0"/>
      <weather route_percentage = "100.0" cloudiness="85.0" precipitation="45.0" precipitation_deposits="60.0" wind_intensity="18.0" sun_azimuth_angle="180.0" sun_altitude_angle="25.0" fog_density="15.0" fog_distance="40.0" wetness="75.0"/>
    </weathers>
    <waypoints>
      <position x="-88.686073" y="127.980064" z="0.000000" pitch="0.0" roll="0.0" yaw="37.065353"/>
      <position x="-28.560221" y="137.035614" z="0.000000" pitch="0.0" roll="0.0" yaw="0.352127"/>
    </waypoints>
    <scenarios>
    </scenarios>
  </route>
  <route id="29" town="Town10HD_Opt">
    <weathers>
      <weather route_percentage = "0.0" cloudiness="30.0" precipitation="0.0" precipitation_deposits="0.0" wind_intensity="35.0" sun_azimuth_angle="270.0" sun_altitude_angle="50.0" fog_density="2.0" fog_distance="120.0" wetness="0.0"/>
      <weather route_percentage = "100.0" cloudiness="30.0" precipitation="0.0" precipitation_deposits="0.0" wind_intensity="35.0" sun_azimuth_angle="270.0" sun_altitude_angle="50.0" fog_density="2.0" fog_distance="120.0" wetness="0.0"/>
    </weathers>
    <waypoints>
      <position x="39.773056" y="36.280201" z="0.000000" pitch="0.0" roll="0.0" yaw="-288.580963"/>
      <position x="27.142294" y="66.283257" z="0.000000" pitch="0.0" roll="0.0" yaw="-179.926727"/>
    </waypoints>
    <scenarios>
    </scenarios>
  </route>
  <route id="30" town="Town10HD_Opt">
    <weathers>
      <weather route_percentage = "0.0" cloudiness="95.0" precipitation="80.0" precipitation_deposits="90.0" wind_intensity="25.0" sun_azimuth_angle="90.0" sun_altitude_angle="15.0" fog_density="40.0" fog_distance="25.0" wetness="95.0"/>
      <weather route_percentage = "100.0" cloudiness="95.0" precipitation="80.0" precipitation_deposits="90.0" wind_intensity="25.0" sun_azimuth_angle="90.0" sun_altitude_angle="15.0" fog_density="40.0" fog_distance="25.0" wetness="95.0"/>
    </weathers>
    <waypoints>
      <position x="-9.857676" y="66.235947" z="0.000000" pitch="0.0" roll="0.0" yaw="-179.926727"/>
      <position x="-45.177841" y="45.715416" z="0.000000" pitch="0.0" roll="0.0" yaw="-90.161232"/>
    </waypoints>
    <scenarios>
    </scenarios>
  </route>
  <route id="31" town="Town10HD_Opt">
    <weathers>
      <weather route_percentage = "0.0" cloudiness="15.0" precipitation="0.0" precipitation_deposits="0.0" wind_intensity="8.0" sun_azimuth_angle="45.0" sun_altitude_angle="65.0" fog_density="0.0" fog_distance="150.0" wetness="0.0"/>
      <weather route_percentage = "100.0" cloudiness="15.0" precipitation="0.0" precipitation_deposits="0.0" wind_intensity="8.0" sun_azimuth_angle="45.0" sun_altitude_angle="65.0" fog_density="0.0" fog_distance="150.0" wetness="0.0"/>
    </weathers>
    <waypoints>
      <position x="-39.216160" y="61.349251" z="0.000000" pitch="0.0" roll="0.0" yaw="228.863281"/>
      <position x="-66.803925" y="16.498377" z="0.000000" pitch="0.0" roll="0.0" yaw="180.159195"/>
    </waypoints>
    <scenarios>
    </scenarios>
  </route>
  <route id="32" town="Town10HD_Opt">
    <weathers>
      <weather route_percentage = "0.0" cloudiness="85.0" precipitation="45.0" precipitation_deposits="60.0" wind_intensity="18.0" sun_azimuth_angle="180.0" sun_altitude_angle="25.0" fog_density="15.0" fog_distance="40.0" wetness="75.0"/>
      <weather route_percentage = "100.0" cloudiness="85.0" precipitation="45.0" precipitation_deposits="60.0" wind_intensity="18.0" sun_azimuth_angle="180.0" sun_altitude_angle="25.0" fog_density="15.0" fog_distance="40.0" wetness="75.0"/>
    </weathers>
    <waypoints>
      <position x="-71.803909" y="16.484484" z="0.000000" pitch="0.0" roll="0.0" yaw="180.159195"/>
      <position x="-110.732994" y="43.860245" z="0.000000" pitch="0.0" roll="0.0" yaw="90.642235"/>
    </waypoints>
    <scenarios>
    </scenarios>
  </route>
  <route id="33" town="Town10HD_Opt">
    <weathers>
      <weather route_percentage = "0.0" cloudiness="30.0" precipitation="0.0" precipitation_deposits="0.0" wind_intensity="35.0" sun_azimuth_angle="270.0" sun_altitude_angle="50.0" fog_density="2.0" fog_distance="120.0" wetness="0.0"/>
      <weather route_percentage = "100.0" cloudiness="30.0" precipitation="0.0" precipitation_deposits="0.0" wind_intensity="35.0" sun_azimuth_angle="270.0" sun_altitude_angle="50.0" fog_density="2.0" fog_distance="120.0" wetness="0.0"/>
    </weathers>
    <waypoints>
      <position x="-88.686073" y="127.980064" z="0.000000" pitch="0.0" roll="0.0" yaw="37.065353"/>
      <position x="-28.560221" y="137.035614" z="0.000000" pitch="0.0" roll="0.0" yaw="0.352127"/>
    </waypoints>
    <scenarios>
    </scenarios>
  </route>
  <route id="34" town="Town10HD_Opt">
    <weathers>
      <weather route_percentage = "0.0" cloudiness="95.0" precipitation="80.0" precipitation_deposits="90.0" wind_intensity="25.0" sun_azimuth_angle="90.0" sun_altitude_angle="15.0" fog_density="40.0" fog_distance="25.0" wetness="95.0"/>
      <weather route_percentage = "100.0" cloudiness="95.0" precipitation="80.0" precipitation_deposits="90.0" wind_intensity="25.0" sun_azimuth_angle="90.0" sun_altitude_angle="15.0" fog_density="40.0" fog_distance="25.0" wetness="95.0"/>
    </weathers>
    <waypoints>
      <position x="-88.686073" y="127.980064" z="0.000000" pitch="0.0" roll="0.0" yaw="37.065353"/>
      <position x="-28.560221" y="137.035614" z="0.000000" pitch="0.0" roll="0.0" yaw="0.352127"/>
    </waypoints>
    <scenarios>
    </scenarios>
  </route>
  <route id="35" town="Town10HD_Opt">
    <weathers>
      <weather route_percentage = "0.0" cloudiness="50.0" precipitation="20.0" precipitation_deposits="25.0" wind_intensity="12.0" sun_azimuth_angle="135.0" sun_altitude_angle="40.0" fog_density="8.0" fog_distance="70.0" wetness="30.0"/>
      <weather route_percentage = "100.0" cloudiness="50.0" precipitation="20.0" precipitation_deposits="25.0" wind_intensity="12.0" sun_azimuth_angle="135.0" sun_altitude_angle="40.0" fog_density="8.0" fog_distance="70.0" wetness="30.0"/>
    </weathers>
    <waypoints>
      <position x="104.870102" y="101.127861" z="0.000000" pitch="0.0" roll="0.0" yaw="-79.349121"/>
      <position x="106.002846" y="53.269283" z="0.000000" pitch="0.0" roll="0.0" yaw="-89.609253"/>
    </waypoints>
    <scenarios>
    </scenarios>
  </route>
  <route id="36" town="Town10HD_Opt">
    <weathers>
      <weather route_percentage = "0.0" cloudiness="5.0" precipitation="0.0" precipitation_deposits="0.0" wind_intensity="3.0" sun_azimuth_angle="225.0" sun_altitude_angle="75.0" fog_density="0.0" fog_distance="200.0" wetness="0.0"/>